<?xml version="1.0" encoding="UTF-8"?>

<!-- generated on 2023-05-02 20:21:17 by Eclipse SUMO netedit Version 1.15.0
<configuration xmlns:xsi="http://www.w3.org/2001/XMLSchema-instance" xsi:noNamespaceSchemaLocation="http://sumo.dlr.de/xsd/netconvertConfiguration.xsd">

    <output>
        <output-file value="C:\Users\Administrator\OneDrive\桌面\Programme\programme\new cfg\highway.net.xml"/>
    </output>

    <processing>
        <offset.disable-normalization value="true"/>
    </processing>

    <junctions>
        <no-turnarounds value="true"/>
    </junctions>

</configuration>
-->

<net version="1.9" junctionCornerDetail="5" limitTurnSpeed="5.50" xmlns:xsi="http://www.w3.org/2001/XMLSchema-instance" xsi:noNamespaceSchemaLocation="http://sumo.dlr.de/xsd/net_file.xsd">

    <location netOffset="0.00,0.00" convBoundary="82.00,55.73,3331.42,63.90" origBoundary="10000000000.00,10000000000.00,-10000000000.00,-10000000000.00" projParameter="!"/>

    <edge id="E0" from="J0" to="J1" priority="7">
        <lane id="E0_0" index="0" speed="36.00" length="3249.43" shape="82.02,47.73 3331.44,55.90"/>
        <lane id="E0_1" index="1" speed="36.00" length="3249.43" shape="82.01,50.93 3331.43,59.10"/>
        <lane id="E0_2" index="2" speed="36.00" length="3249.43" shape="82.00,54.13 3331.42,62.30"/>
    </edge>

    <junction id="J0" type="dead_end" x="82.00" y="55.73" incLanes="" intLanes="" shape="82.00,55.73 82.02,46.13"/>
    <junction id="J1" type="dead_end" x="3331.42" y="63.90" incLanes="E0_0 E0_1 E0_2" intLanes="" shape="3331.44,54.30 3331.42,63.90"/>

</net>
