<?xml version="1.0" encoding="UTF-8"?>

<!-- generated on 09/06/23 16:56:12 by Eclipse SUMO netedit Version 1.8.0
<configuration xmlns:xsi="http://www.w3.org/2001/XMLSchema-instance" xsi:noNamespaceSchemaLocation="http://sumo.dlr.de/xsd/netconvertConfiguration.xsd">

    <input>
        <sumo-net-file value="D:\code\Motion_Planning\SumoGym\sumo_config\JingZan.net.xml"/>
    </input>

    <output>
        <output-file value="D:\code\Motion_Planning\SumoGym\sumo_config\JingZan.net.xml"/>
    </output>

    <processing>
        <geometry.min-radius.fix.railways value="false"/>
        <geometry.max-grade.fix value="false"/>
        <offset.disable-normalization value="true"/>
        <lefthand value="false"/>
    </processing>

    <junctions>
        <no-turnarounds value="true"/>
        <junctions.corner-detail value="5"/>
        <junctions.limit-turn-speed value="5.5"/>
        <rectangular-lane-cut value="false"/>
    </junctions>

    <pedestrian>
        <walkingareas value="false"/>
    </pedestrian>

    <report>
        <aggregate-warnings value="5"/>
    </report>

</configuration>
-->

<net version="1.6" junctionCornerDetail="5" limitTurnSpeed="5.50" xmlns:xsi="http://www.w3.org/2001/XMLSchema-instance" xsi:noNamespaceSchemaLocation="http://sumo.dlr.de/xsd/net_file.xsd">

    <location netOffset="0.00,0.00" convBoundary="0.00,0.00,2000.00,0.00" origBoundary="-10000000000.00,-10000000000.00,10000000000.00,10000000000.00" projParameter="!"/>

    <edge id=":gneJ1_0" function="internal">
        <lane id=":gneJ1_0_0" index="0" speed="30.00" length="0.10" shape="1000.00,-4.80 1000.00,-4.80"/>
        <lane id=":gneJ1_0_1" index="1" speed="30.00" length="0.10" shape="1000.00,-1.60 1000.00,-1.60"/>
    </edge>

    <edge id="gneE0" from="gneJ0" to="gneJ1" priority="-1">
        <lane id="gneE0_0" index="0" speed="30.00" length="1000.00" shape="0.00,-4.80 1000.00,-4.80"/>
        <lane id="gneE0_1" index="1" speed="30.00" length="1000.00" shape="0.00,-1.60 1000.00,-1.60"/>
    </edge>
    <edge id="gneE1" from="gneJ1" to="gneJ2" priority="-1">
        <lane id="gneE1_0" index="0" speed="30.00" length="1000.00" shape="1000.00,-4.80 2000.00,-4.80"/>
        <lane id="gneE1_1" index="1" speed="30.00" length="1000.00" shape="1000.00,-1.60 2000.00,-1.60"/>
    </edge>

    <junction id="gneJ0" type="dead_end" x="0.00" y="0.00" incLanes="" intLanes="" shape="0.00,0.00 0.00,-6.40"/>
    <junction id="gneJ1" type="priority" x="1000.00" y="0.00" incLanes="gneE0_0 gneE0_1" intLanes=":gneJ1_0_0 :gneJ1_0_1" shape="1000.00,0.00 1000.00,-6.40 1000.00,0.00">
        <request index="0" response="00" foes="00" cont="0"/>
        <request index="1" response="00" foes="00" cont="0"/>
    </junction>
    <junction id="gneJ2" type="dead_end" x="2000.00" y="0.00" incLanes="gneE1_0 gneE1_1" intLanes="" shape="2000.00,-6.40 2000.00,0.00"/>

    <connection from="gneE0" to="gneE1" fromLane="0" toLane="0" via=":gneJ1_0_0" dir="s" state="M"/>
    <connection from="gneE0" to="gneE1" fromLane="1" toLane="1" via=":gneJ1_0_1" dir="s" state="M"/>

    <connection from=":gneJ1_0" to="gneE1" fromLane="0" toLane="0" dir="s" state="M"/>
    <connection from=":gneJ1_0" to="gneE1" fromLane="1" toLane="1" dir="s" state="M"/>

</net>
