<?xml version="1.0" encoding="UTF-8"?>

<!-- generated on 2024-06-12 19:04:03 by Eclipse SUMO netedit Version 1.15.0
<configuration xmlns:xsi="http://www.w3.org/2001/XMLSchema-instance" xsi:noNamespaceSchemaLocation="http://sumo.dlr.de/xsd/netconvertConfiguration.xsd">

    <input>
        <sumo-net-file value="C:\Users\Administrator\OneDrive\桌面\Programme\programme\Flow\cfg\freeway.net.xml"/>
    </input>

    <output>
        <output-file value="C:\Users\Administrator\OneDrive\桌面\Programme\programme\Flow\cfg\freeway.net.xml"/>
    </output>

    <processing>
        <geometry.min-radius.fix.railways value="false"/>
        <geometry.max-grade.fix value="false"/>
        <offset.disable-normalization value="true"/>
        <lefthand value="0"/>
    </processing>

    <junctions>
        <no-turnarounds value="true"/>
        <junctions.corner-detail value="5"/>
        <junctions.limit-turn-speed value="5.50"/>
        <rectangular-lane-cut value="0"/>
    </junctions>

    <pedestrian>
        <walkingareas value="0"/>
    </pedestrian>

</configuration>
-->

<net version="1.9" junctionCornerDetail="5" limitTurnSpeed="5.50" xmlns:xsi="http://www.w3.org/2001/XMLSchema-instance" xsi:noNamespaceSchemaLocation="http://sumo.dlr.de/xsd/net_file.xsd">

    <location netOffset="0.00,0.00" convBoundary="-900.00,100.00,1100.00,100.00" origBoundary="-10000000000.00,-10000000000.00,10000000000.00,10000000000.00" projParameter="!"/>

    <edge id=":J1_0" function="internal">
        <lane id=":J1_0_0" index="0" speed="22.50" length="0.10" shape="-400.00,98.40 -400.00,98.40"/>
    </edge>
    <edge id=":J2_0" function="internal">
        <lane id=":J2_0_0" index="0" speed="22.50" length="0.10" shape="100.00,98.40 100.00,98.40"/>
    </edge>

    <edge id="E0" from="J0" to="J1" priority="-1">
        <lane id="E0_0" index="0" speed="40.00" length="500.00" shape="-900.00,98.40 -400.00,98.40"/>
    </edge>
    <edge id="E1" from="J1" to="J2" priority="-1">
        <lane id="E1_0" index="0" speed="5.00" length="500.00" shape="-400.00,98.40 100.00,98.40"/>
    </edge>
    <edge id="E2" from="J2" to="J3" priority="-1">
        <lane id="E2_0" index="0" speed="40.00" length="1000.00" shape="100.00,98.40 1100.00,98.40"/>
    </edge>

    <junction id="J0" type="dead_end" x="-900.00" y="100.00" incLanes="" intLanes="" shape="-900.00,100.00 -900.00,96.80"/>
    <junction id="J1" type="priority" x="-400.00" y="100.00" incLanes="E0_0" intLanes=":J1_0_0" shape="-400.00,100.00 -400.00,96.80 -400.00,100.00">
        <request index="0" response="0" foes="0" cont="0"/>
    </junction>
    <junction id="J2" type="priority" x="100.00" y="100.00" incLanes="E1_0" intLanes=":J2_0_0" shape="100.00,100.00 100.00,96.80 100.00,100.00">
        <request index="0" response="0" foes="0" cont="0"/>
    </junction>
    <junction id="J3" type="dead_end" x="1100.00" y="100.00" incLanes="E2_0" intLanes="" shape="1100.00,96.80 1100.00,100.00"/>

    <connection from="E0" to="E1" fromLane="0" toLane="0" via=":J1_0_0" dir="s" state="M"/>
    <connection from="E1" to="E2" fromLane="0" toLane="0" via=":J2_0_0" dir="s" state="M"/>

    <connection from=":J1_0" to="E1" fromLane="0" toLane="0" dir="s" state="M"/>
    <connection from=":J2_0" to="E2" fromLane="0" toLane="0" dir="s" state="M"/>

</net>
